// Generated for: spectre
// Generated on: May 14 15:53:24 2024
// Design library name: projeto
// Design cell name: 8x8_benes_tb
// Design view name: config
simulator lang=spectre
global 0 vdd!
include "/home/cadmgr/libs/gpdk045/v6.0/gpdk045/../models/spectre/gpdk045.scs" section=mc

parameters Supply=1

// Inherited view list: spectre schematic cmos_sch veriloga
// Library name: projeto
// Cell name: 8x8_benes
// View name: av_extracted
// View type: maskLayout
subckt projeto_8x8_benes_av_extracted S00 S01 S02 S03 S04 S10 S11 S12 S13 \
        S14 S20 S21 S22 S23 S24 S30 S31 S32 S33 S34 X0 X1 X2 X3 X4 X5 X6 \
        X7 Y0 Y1 Y2 Y3 Y4 Y5 Y6 Y7
    I0\|PM19 (\4\:net2 \4\:I0\|N_S10 I0\|net6 vdd!) g45p1svt w=(1.2e-07) \
        l=4.5e-08 nf=1 as=2.52e-14 ad=1.92e-14 ps=6.6e-07 pd=5.6e-07 \
        nrd=1.16667 nrs=1.16667 sa=2.1e-07 sb=7.55e-07 sd=160n sca=41.6117 \
        scb=0.0399934 scc=0.00517383 m=(1)
    I0\|PM2 (\4\:net4 \4\:I0\|N_S00 I0\|net10 vdd!) g45p1svt w=(1.2e-07) \
        l=4.5e-08 nf=1 as=2.52e-14 ad=1.92e-14 ps=6.6e-07 pd=5.6e-07 \
        nrd=1.16667 nrs=1.16667 sa=2.1e-07 sb=7.55e-07 sd=160n sca=41.6117 \
        scb=0.0399934 scc=0.00517383 m=(1)
    I0\|PM29 (\4\:net2 \1\:S11 I0\|net5 vdd!) g45p1svt w=(1.2e-07) \
        l=4.5e-08 nf=1 as=1.92e-14 ad=1.92e-14 ps=5.6e-07 pd=5.6e-07 \
        nrd=1.16667 nrs=1.16667 sa=4.15e-07 sb=5.5e-07 sd=160n sca=41.6117 \
        scb=0.0399934 scc=0.00517383 m=(1)
    I0\|PM0 (\4\:net4 \1\:S01 I0\|net9 vdd!) g45p1svt w=(1.2e-07) \
        l=4.5e-08 nf=1 as=1.92e-14 ad=1.92e-14 ps=5.6e-07 pd=5.6e-07 \
        nrd=1.16667 nrs=1.16667 sa=4.15e-07 sb=5.5e-07 sd=160n sca=41.6117 \
        scb=0.0399934 scc=0.00517383 m=(1)
    I0\|PM17 (I0\|net5 I0\|N_S10 \4\:net1 vdd!) g45p1svt w=(1.2e-07) \
        l=4.5e-08 nf=1 as=1.92e-14 ad=1.92e-14 ps=5.6e-07 pd=5.6e-07 \
        nrd=1.16667 nrs=1.16667 sa=6.2e-07 sb=3.45e-07 sd=160n sca=41.6117 \
        scb=0.0399934 scc=0.00517383 m=(1)
    I0\|PM1 (I0\|net9 I0\|N_S00 \6\:net3 vdd!) g45p1svt w=(1.2e-07) \
        l=4.5e-08 nf=1 as=1.92e-14 ad=1.92e-14 ps=5.6e-07 pd=5.6e-07 \
        nrd=1.16667 nrs=1.16667 sa=6.2e-07 sb=3.45e-07 sd=160n sca=41.6117 \
        scb=0.0399934 scc=0.00517383 m=(1)
    I0\|PM15 (\4\:net1 \2\:S11 \5\:I0\|net6 vdd!) g45p1svt w=(1.2e-07) \
        l=4.5e-08 nf=1 as=1.68e-14 ad=1.92e-14 ps=5.2e-07 pd=5.6e-07 \
        nrd=1.16667 nrs=1.16667 sa=8.25e-07 sb=1.4e-07 sd=160n sca=41.6117 \
        scb=0.0399934 scc=0.00517383 m=(1)
    I0\|PM3 (\6\:net3 \2\:S01 \5\:I0\|net10 vdd!) g45p1svt w=(1.2e-07) \
        l=4.5e-08 nf=1 as=1.68e-14 ad=1.92e-14 ps=5.2e-07 pd=5.6e-07 \
        nrd=1.16667 nrs=1.16667 sa=8.25e-07 sb=1.4e-07 sd=160n sca=41.6117 \
        scb=0.0399934 scc=0.00517383 m=(1)
    I0\|PM22 (\11\:I0\|net10 \4\:I0\|N_S11 I0\|net8 vdd!) g45p1svt \
        w=(1.2e-07) l=4.5e-08 nf=1 as=2.52e-14 ad=1.92e-14 ps=6.6e-07 \
        pd=5.6e-07 nrd=1.16667 nrs=1.16667 sa=2.1e-07 sb=7.55e-07 sd=160n \
        sca=41.6117 scb=0.0399934 scc=0.00517383 m=(1)
    I0\|PM8 (\9\:I0\|net9 \4\:I0\|N_S01 I0\|net3 vdd!) g45p1svt \
        w=(1.2e-07) l=4.5e-08 nf=1 as=2.52e-14 ad=1.92e-14 ps=6.6e-07 \
        pd=5.6e-07 nrd=1.16667 nrs=1.16667 sa=2.1e-07 sb=7.55e-07 sd=160n \
        sca=41.6117 scb=0.0399934 scc=0.00517383 m=(1)
    I0\|PM23 (\11\:I0\|net10 \1\:S12 I0\|net2 vdd!) g45p1svt w=(1.2e-07) \
        l=4.5e-08 nf=1 as=1.92e-14 ad=1.92e-14 ps=5.6e-07 pd=5.6e-07 \
        nrd=1.16667 nrs=1.16667 sa=4.15e-07 sb=5.5e-07 sd=160n sca=41.6117 \
        scb=0.0399934 scc=0.00517383 m=(1)
    I0\|PM9 (\9\:I0\|net9 \1\:S02 I0\|net1 vdd!) g45p1svt w=(1.2e-07) \
        l=4.5e-08 nf=1 as=1.92e-14 ad=1.92e-14 ps=5.6e-07 pd=5.6e-07 \
        nrd=1.16667 nrs=1.16667 sa=4.15e-07 sb=5.5e-07 sd=160n sca=41.6117 \
        scb=0.0399934 scc=0.00517383 m=(1)
    I0\|PM20 (I0\|net2 I0\|N_S11 \7\:I0\|net6 vdd!) g45p1svt w=(1.2e-07) \
        l=4.5e-08 nf=1 as=1.92e-14 ad=1.92e-14 ps=5.6e-07 pd=5.6e-07 \
        nrd=1.16667 nrs=1.16667 sa=6.2e-07 sb=3.45e-07 sd=160n sca=41.6117 \
        scb=0.0399934 scc=0.00517383 m=(1)
    I0\|PM6 (I0\|net1 I0\|N_S01 \5\:I0\|net5 vdd!) g45p1svt w=(1.2e-07) \
        l=4.5e-08 nf=1 as=1.92e-14 ad=1.92e-14 ps=5.6e-07 pd=5.6e-07 \
        nrd=1.16667 nrs=1.16667 sa=6.2e-07 sb=3.45e-07 sd=160n sca=41.6117 \
        scb=0.0399934 scc=0.00517383 m=(1)
    I0\|PM16 (\7\:I0\|net6 \2\:S12 \5\:I0\|net8 vdd!) g45p1svt w=(1.2e-07) \
        l=4.5e-08 nf=1 as=1.68e-14 ad=1.92e-14 ps=5.2e-07 pd=5.6e-07 \
        nrd=1.16667 nrs=1.16667 sa=8.25e-07 sb=1.4e-07 sd=160n sca=41.6117 \
        scb=0.0399934 scc=0.00517383 m=(1)
    I0\|PM5 (\5\:I0\|net5 \2\:S02 \5\:I0\|net3 vdd!) g45p1svt w=(1.2e-07) \
        l=4.5e-08 nf=1 as=1.68e-14 ad=1.92e-14 ps=5.2e-07 pd=5.6e-07 \
        nrd=1.16667 nrs=1.16667 sa=8.25e-07 sb=1.4e-07 sd=160n sca=41.6117 \
        scb=0.0399934 scc=0.00517383 m=(1)
    I0\|PM27 (\11\:I0\|net3 \4\:I0\|N_S12 net5 vdd!) g45p1svt w=(1.2e-07) \
        l=4.5e-08 nf=1 as=2.52e-14 ad=1.92e-14 ps=6.6e-07 pd=5.6e-07 \
        nrd=1.16667 nrs=1.16667 sa=2.1e-07 sb=7.55e-07 sd=160n sca=41.6117 \
        scb=0.0399934 scc=0.00517383 m=(1)
    I0\|PM13 (\9\:I0\|net1 \4\:I0\|N_S02 \3\:net7 vdd!) g45p1svt \
        w=(1.2e-07) l=4.5e-08 nf=1 as=2.52e-14 ad=1.92e-14 ps=6.6e-07 \
        pd=5.6e-07 nrd=1.16667 nrs=1.16667 sa=2.1e-07 sb=7.55e-07 sd=160n \
        sca=41.6117 scb=0.0399934 scc=0.00517383 m=(1)
    I0\|PM28 (\11\:I0\|net3 \1\:S13 \6\:net6 vdd!) g45p1svt w=(1.2e-07) \
        l=4.5e-08 nf=1 as=1.92e-14 ad=1.92e-14 ps=5.6e-07 pd=5.6e-07 \
        nrd=1.16667 nrs=1.16667 sa=4.15e-07 sb=5.5e-07 sd=160n sca=41.6117 \
        scb=0.0399934 scc=0.00517383 m=(1)
    I0\|PM14 (\9\:I0\|net1 \1\:S03 \6\:net8 vdd!) g45p1svt w=(1.2e-07) \
        l=4.5e-08 nf=1 as=1.92e-14 ad=1.92e-14 ps=5.6e-07 pd=5.6e-07 \
        nrd=1.16667 nrs=1.16667 sa=4.15e-07 sb=5.5e-07 sd=160n sca=41.6117 \
        scb=0.0399934 scc=0.00517383 m=(1)
    I0\|PM25 (\6\:net6 I0\|N_S12 \7\:I0\|net8 vdd!) g45p1svt w=(1.2e-07) \
        l=4.5e-08 nf=1 as=1.92e-14 ad=1.92e-14 ps=5.6e-07 pd=5.6e-07 \
        nrd=1.16667 nrs=1.16667 sa=6.2e-07 sb=3.45e-07 sd=160n sca=41.6117 \
        scb=0.0399934 scc=0.00517383 m=(1)
    I0\|PM11 (\6\:net8 I0\|N_S02 \5\:I0\|net2 vdd!) g45p1svt w=(1.2e-07) \
        l=4.5e-08 nf=1 as=1.92e-14 ad=1.92e-14 ps=5.6e-07 pd=5.6e-07 \
        nrd=1.16667 nrs=1.16667 sa=6.2e-07 sb=3.45e-07 sd=160n sca=41.6117 \
        scb=0.0399934 scc=0.00517383 m=(1)
    I0\|PM24 (\7\:I0\|net8 \2\:S13 \5\:net5 vdd!) g45p1svt w=(1.2e-07) \
        l=4.5e-08 nf=1 as=1.68e-14 ad=1.92e-14 ps=5.2e-07 pd=5.6e-07 \
        nrd=1.16667 nrs=1.16667 sa=8.25e-07 sb=1.4e-07 sd=160n sca=41.6117 \
        scb=0.0399934 scc=0.00517383 m=(1)
    I0\|PM10 (\5\:I0\|net2 \2\:S03 \5\:net7 vdd!) g45p1svt w=(1.2e-07) \
        l=4.5e-08 nf=1 as=1.68e-14 ad=1.92e-14 ps=5.2e-07 pd=5.6e-07 \
        nrd=1.16667 nrs=1.16667 sa=8.25e-07 sb=1.4e-07 sd=160n sca=41.6117 \
        scb=0.0399934 scc=0.00517383 m=(1)
    I1\|PM19 (\10\:net16 \4\:I1\|N_S10 I1\|net6 vdd!) g45p1svt w=(1.2e-07) \
        l=4.5e-08 nf=1 as=2.52e-14 ad=1.92e-14 ps=6.6e-07 pd=5.6e-07 \
        nrd=1.16667 nrs=1.16667 sa=2.1e-07 sb=7.55e-07 sd=160n sca=41.6117 \
        scb=0.0399934 scc=0.00517383 m=(1)
    I1\|PM2 (\10\:net18 \4\:I1\|N_S00 I1\|net10 vdd!) g45p1svt w=(1.2e-07) \
        l=4.5e-08 nf=1 as=2.52e-14 ad=1.92e-14 ps=6.6e-07 pd=5.6e-07 \
        nrd=1.16667 nrs=1.16667 sa=2.1e-07 sb=7.55e-07 sd=160n sca=41.6117 \
        scb=0.0399934 scc=0.00517383 m=(1)
    I1\|PM29 (\10\:net16 \1\:S31 I1\|net5 vdd!) g45p1svt w=(1.2e-07) \
        l=4.5e-08 nf=1 as=1.92e-14 ad=1.92e-14 ps=5.6e-07 pd=5.6e-07 \
        nrd=1.16667 nrs=1.16667 sa=4.15e-07 sb=5.5e-07 sd=160n sca=41.6117 \
        scb=0.0399934 scc=0.00517383 m=(1)
    I1\|PM0 (\10\:net18 \1\:S21 I1\|net9 vdd!) g45p1svt w=(1.2e-07) \
        l=4.5e-08 nf=1 as=1.92e-14 ad=1.92e-14 ps=5.6e-07 pd=5.6e-07 \
        nrd=1.16667 nrs=1.16667 sa=4.15e-07 sb=5.5e-07 sd=160n sca=41.6117 \
        scb=0.0399934 scc=0.00517383 m=(1)
    I1\|PM17 (I1\|net5 I1\|N_S10 \2\:net15 vdd!) g45p1svt w=(1.2e-07) \
        l=4.5e-08 nf=1 as=1.92e-14 ad=1.92e-14 ps=5.6e-07 pd=5.6e-07 \
        nrd=1.16667 nrs=1.16667 sa=6.2e-07 sb=3.45e-07 sd=160n sca=41.6117 \
        scb=0.0399934 scc=0.00517383 m=(1)
    I1\|PM1 (I1\|net9 I1\|N_S00 \2\:net17 vdd!) g45p1svt w=(1.2e-07) \
        l=4.5e-08 nf=1 as=1.92e-14 ad=1.92e-14 ps=5.6e-07 pd=5.6e-07 \
        nrd=1.16667 nrs=1.16667 sa=6.2e-07 sb=3.45e-07 sd=160n sca=41.6117 \
        scb=0.0399934 scc=0.00517383 m=(1)
    I1\|PM15 (\2\:net15 \2\:S31 \5\:I1\|net6 vdd!) g45p1svt w=(1.2e-07) \
        l=4.5e-08 nf=1 as=1.68e-14 ad=1.92e-14 ps=5.2e-07 pd=5.6e-07 \
        nrd=1.16667 nrs=1.16667 sa=8.25e-07 sb=1.4e-07 sd=160n sca=41.6117 \
        scb=0.0399934 scc=0.00517383 m=(1)
    I1\|PM3 (\2\:net17 \2\:S21 \5\:I1\|net10 vdd!) g45p1svt w=(1.2e-07) \
        l=4.5e-08 nf=1 as=1.68e-14 ad=1.92e-14 ps=5.2e-07 pd=5.6e-07 \
        nrd=1.16667 nrs=1.16667 sa=8.25e-07 sb=1.4e-07 sd=160n sca=41.6117 \
        scb=0.0399934 scc=0.00517383 m=(1)
    I1\|PM22 (\11\:I1\|net10 \4\:I1\|N_S11 I1\|net8 vdd!) g45p1svt \
        w=(1.2e-07) l=4.5e-08 nf=1 as=2.52e-14 ad=1.92e-14 ps=6.6e-07 \
        pd=5.6e-07 nrd=1.16667 nrs=1.16667 sa=2.1e-07 sb=7.55e-07 sd=160n \
        sca=41.6117 scb=0.0399934 scc=0.00517383 m=(1)
    I1\|PM8 (\9\:I1\|net9 \4\:I1\|N_S01 I1\|net3 vdd!) g45p1svt \
        w=(1.2e-07) l=4.5e-08 nf=1 as=2.52e-14 ad=1.92e-14 ps=6.6e-07 \
        pd=5.6e-07 nrd=1.16667 nrs=1.16667 sa=2.1e-07 sb=7.55e-07 sd=160n \
        sca=41.6117 scb=0.0399934 scc=0.00517383 m=(1)
    I1\|PM23 (\11\:I1\|net10 \1\:S32 I1\|net2 vdd!) g45p1svt w=(1.2e-07) \
        l=4.5e-08 nf=1 as=1.92e-14 ad=1.92e-14 ps=5.6e-07 pd=5.6e-07 \
        nrd=1.16667 nrs=1.16667 sa=4.15e-07 sb=5.5e-07 sd=160n sca=41.6117 \
        scb=0.0399934 scc=0.00517383 m=(1)
    I1\|PM9 (\9\:I1\|net9 \1\:S22 I1\|net1 vdd!) g45p1svt w=(1.2e-07) \
        l=4.5e-08 nf=1 as=1.92e-14 ad=1.92e-14 ps=5.6e-07 pd=5.6e-07 \
        nrd=1.16667 nrs=1.16667 sa=4.15e-07 sb=5.5e-07 sd=160n sca=41.6117 \
        scb=0.0399934 scc=0.00517383 m=(1)
    I1\|PM20 (I1\|net2 I1\|N_S11 \7\:I1\|net6 vdd!) g45p1svt w=(1.2e-07) \
        l=4.5e-08 nf=1 as=1.92e-14 ad=1.92e-14 ps=5.6e-07 pd=5.6e-07 \
        nrd=1.16667 nrs=1.16667 sa=6.2e-07 sb=3.45e-07 sd=160n sca=41.6117 \
        scb=0.0399934 scc=0.00517383 m=(1)
    I1\|PM6 (I1\|net1 I1\|N_S01 \5\:I1\|net5 vdd!) g45p1svt w=(1.2e-07) \
        l=4.5e-08 nf=1 as=1.92e-14 ad=1.92e-14 ps=5.6e-07 pd=5.6e-07 \
        nrd=1.16667 nrs=1.16667 sa=6.2e-07 sb=3.45e-07 sd=160n sca=41.6117 \
        scb=0.0399934 scc=0.00517383 m=(1)
    I1\|PM16 (\7\:I1\|net6 \2\:S32 \5\:I1\|net8 vdd!) g45p1svt w=(1.2e-07) \
        l=4.5e-08 nf=1 as=1.68e-14 ad=1.92e-14 ps=5.2e-07 pd=5.6e-07 \
        nrd=1.16667 nrs=1.16667 sa=8.25e-07 sb=1.4e-07 sd=160n sca=41.6117 \
        scb=0.0399934 scc=0.00517383 m=(1)
    I1\|PM5 (\5\:I1\|net5 \2\:S22 \5\:I1\|net3 vdd!) g45p1svt w=(1.2e-07) \
        l=4.5e-08 nf=1 as=1.68e-14 ad=1.92e-14 ps=5.2e-07 pd=5.6e-07 \
        nrd=1.16667 nrs=1.16667 sa=8.25e-07 sb=1.4e-07 sd=160n sca=41.6117 \
        scb=0.0399934 scc=0.00517383 m=(1)
    I1\|PM27 (\11\:I1\|net3 \4\:I1\|N_S12 \7\:net19 vdd!) g45p1svt \
        w=(1.2e-07) l=4.5e-08 nf=1 as=2.52e-14 ad=1.92e-14 ps=6.6e-07 \
        pd=5.6e-07 nrd=1.16667 nrs=1.16667 sa=2.1e-07 sb=7.55e-07 sd=160n \
        sca=41.6117 scb=0.0399934 scc=0.00517383 m=(1)
    I1\|PM13 (\9\:I1\|net1 \4\:I1\|N_S02 \7\:net21 vdd!) g45p1svt \
        w=(1.2e-07) l=4.5e-08 nf=1 as=2.52e-14 ad=1.92e-14 ps=6.6e-07 \
        pd=5.6e-07 nrd=1.16667 nrs=1.16667 sa=2.1e-07 sb=7.55e-07 sd=160n \
        sca=41.6117 scb=0.0399934 scc=0.00517383 m=(1)
    I1\|PM28 (\11\:I1\|net3 \1\:S33 net20 vdd!) g45p1svt w=(1.2e-07) \
        l=4.5e-08 nf=1 as=1.92e-14 ad=1.92e-14 ps=5.6e-07 pd=5.6e-07 \
        nrd=1.16667 nrs=1.16667 sa=4.15e-07 sb=5.5e-07 sd=160n sca=41.6117 \
        scb=0.0399934 scc=0.00517383 m=(1)
    I1\|PM14 (\9\:I1\|net1 \1\:S23 \2\:net22 vdd!) g45p1svt w=(1.2e-07) \
        l=4.5e-08 nf=1 as=1.92e-14 ad=1.92e-14 ps=5.6e-07 pd=5.6e-07 \
        nrd=1.16667 nrs=1.16667 sa=4.15e-07 sb=5.5e-07 sd=160n sca=41.6117 \
        scb=0.0399934 scc=0.00517383 m=(1)
    I1\|PM25 (net20 I1\|N_S12 \7\:I1\|net8 vdd!) g45p1svt w=(1.2e-07) \
        l=4.5e-08 nf=1 as=1.92e-14 ad=1.92e-14 ps=5.6e-07 pd=5.6e-07 \
        nrd=1.16667 nrs=1.16667 sa=6.2e-07 sb=3.45e-07 sd=160n sca=41.6117 \
        scb=0.0399934 scc=0.00517383 m=(1)
    I1\|PM11 (\2\:net22 I1\|N_S02 \5\:I1\|net2 vdd!) g45p1svt w=(1.2e-07) \
        l=4.5e-08 nf=1 as=1.92e-14 ad=1.92e-14 ps=5.6e-07 pd=5.6e-07 \
        nrd=1.16667 nrs=1.16667 sa=6.2e-07 sb=3.45e-07 sd=160n sca=41.6117 \
        scb=0.0399934 scc=0.00517383 m=(1)
    I1\|PM24 (\7\:I1\|net8 \2\:S33 \4\:net19 vdd!) g45p1svt w=(1.2e-07) \
        l=4.5e-08 nf=1 as=1.68e-14 ad=1.92e-14 ps=5.2e-07 pd=5.6e-07 \
        nrd=1.16667 nrs=1.16667 sa=8.25e-07 sb=1.4e-07 sd=160n sca=41.6117 \
        scb=0.0399934 scc=0.00517383 m=(1)
    I1\|PM10 (\5\:I1\|net2 \2\:S23 \4\:net21 vdd!) g45p1svt w=(1.2e-07) \
        l=4.5e-08 nf=1 as=1.68e-14 ad=1.92e-14 ps=5.2e-07 pd=5.6e-07 \
        nrd=1.16667 nrs=1.16667 sa=8.25e-07 sb=1.4e-07 sd=160n sca=41.6117 \
        scb=0.0399934 scc=0.00517383 m=(1)
    I6\|PM6 (\4\:net8 \4\:I6\|N_S \2\:Y1 vdd!) g45p1svt w=(1.2e-07) \
        l=4.5e-08 nf=1 as=2.52e-14 ad=1.92e-14 ps=6.6e-07 pd=5.6e-07 \
        nrd=1.16667 nrs=1.16667 sa=2.1e-07 sb=7.55e-07 sd=160n sca=41.897 \
        scb=0.0400704 scc=0.00517385 m=(1)
    I6\|PM0 (\4\:net8 \1\:S04 \1\:Y0 vdd!) g45p1svt w=(1.2e-07) l=4.5e-08 \
        nf=1 as=1.92e-14 ad=1.92e-14 ps=5.6e-07 pd=5.6e-07 nrd=1.16667 \
        nrs=1.16667 sa=4.15e-07 sb=5.5e-07 sd=160n sca=42.7422 \
        scb=0.0406409 scc=0.00517452 m=(1)
    I6\|PM7 (\6\:net22 I6\|N_S \1\:Y0 vdd!) g45p1svt w=(1.2e-07) l=4.5e-08 \
        nf=1 as=1.92e-14 ad=1.92e-14 ps=5.6e-07 pd=5.6e-07 nrd=1.16667 \
        nrs=1.16667 sa=6.2e-07 sb=3.45e-07 sd=160n sca=44.8715 \
        scb=0.0436968 scc=0.00520302 m=(1)
    I6\|PM5 (\6\:net22 \2\:S04 \5\:Y1 vdd!) g45p1svt w=(1.2e-07) l=4.5e-08 \
        nf=1 as=1.68e-14 ad=1.92e-14 ps=5.2e-07 pd=5.6e-07 nrd=1.16667 \
        nrs=1.16667 sa=8.25e-07 sb=1.4e-07 sd=160n sca=53.2651 \
        scb=0.056752 scc=0.0061893 m=(1)
    I7\|PM6 (\4\:net6 \4\:I7\|N_S \6\:Y3 vdd!) g45p1svt w=(1.2e-07) \
        l=4.5e-08 nf=1 as=2.52e-14 ad=1.92e-14 ps=6.6e-07 pd=5.6e-07 \
        nrd=1.16667 nrs=1.16667 sa=2.1e-07 sb=7.55e-07 sd=160n sca=41.897 \
        scb=0.0400704 scc=0.00517385 m=(1)
    I7\|PM0 (\4\:net6 \1\:S14 \1\:Y2 vdd!) g45p1svt w=(1.2e-07) l=4.5e-08 \
        nf=1 as=1.92e-14 ad=1.92e-14 ps=5.6e-07 pd=5.6e-07 nrd=1.16667 \
        nrs=1.16667 sa=4.15e-07 sb=5.5e-07 sd=160n sca=42.7422 \
        scb=0.0406409 scc=0.00517452 m=(1)
    I7\|PM7 (\5\:net20 I7\|N_S \1\:Y2 vdd!) g45p1svt w=(1.2e-07) l=4.5e-08 \
        nf=1 as=1.92e-14 ad=1.92e-14 ps=5.6e-07 pd=5.6e-07 nrd=1.16667 \
        nrs=1.16667 sa=6.2e-07 sb=3.45e-07 sd=160n sca=44.8715 \
        scb=0.0436968 scc=0.00520302 m=(1)
    I7\|PM5 (\5\:net20 \2\:S14 \5\:Y3 vdd!) g45p1svt w=(1.2e-07) l=4.5e-08 \
        nf=1 as=1.68e-14 ad=1.92e-14 ps=5.2e-07 pd=5.6e-07 nrd=1.16667 \
        nrs=1.16667 sa=8.25e-07 sb=1.4e-07 sd=160n sca=53.2651 \
        scb=0.056752 scc=0.0061893 m=(1)
    I8\|PM6 (\10\:net7 \4\:I8\|N_S \4\:Y5 vdd!) g45p1svt w=(1.2e-07) \
        l=4.5e-08 nf=1 as=2.52e-14 ad=1.92e-14 ps=6.6e-07 pd=5.6e-07 \
        nrd=1.16667 nrs=1.16667 sa=2.1e-07 sb=7.55e-07 sd=160n sca=41.897 \
        scb=0.0400704 scc=0.00517385 m=(1)
    I8\|PM0 (\10\:net7 \1\:S24 \1\:Y4 vdd!) g45p1svt w=(1.2e-07) l=4.5e-08 \
        nf=1 as=1.92e-14 ad=1.92e-14 ps=5.6e-07 pd=5.6e-07 nrd=1.16667 \
        nrs=1.16667 sa=4.15e-07 sb=5.5e-07 sd=160n sca=42.7422 \
        scb=0.0406409 scc=0.00517452 m=(1)
    I8\|PM7 (\2\:net21 I8\|N_S \1\:Y4 vdd!) g45p1svt w=(1.2e-07) l=4.5e-08 \
        nf=1 as=1.92e-14 ad=1.92e-14 ps=5.6e-07 pd=5.6e-07 nrd=1.16667 \
        nrs=1.16667 sa=6.2e-07 sb=3.45e-07 sd=160n sca=44.8715 \
        scb=0.0436968 scc=0.00520302 m=(1)
    I8\|PM5 (\2\:net21 \2\:S24 \5\:Y5 vdd!) g45p1svt w=(1.2e-07) l=4.5e-08 \
        nf=1 as=1.68e-14 ad=1.92e-14 ps=5.2e-07 pd=5.6e-07 nrd=1.16667 \
        nrs=1.16667 sa=8.25e-07 sb=1.4e-07 sd=160n sca=53.2651 \
        scb=0.056752 scc=0.0061893 m=(1)
    I9\|PM6 (\11\:net5 \4\:I9\|N_S \4\:Y7 vdd!) g45p1svt w=(1.2e-07) \
        l=4.5e-08 nf=1 as=2.52e-14 ad=1.92e-14 ps=6.6e-07 pd=5.6e-07 \
        nrd=1.16667 nrs=1.16667 sa=2.1e-07 sb=7.55e-07 sd=160n sca=41.897 \
        scb=0.0400704 scc=0.00517385 m=(1)
    I9\|PM0 (\11\:net5 \1\:S34 \1\:Y6 vdd!) g45p1svt w=(1.2e-07) l=4.5e-08 \
        nf=1 as=1.92e-14 ad=1.92e-14 ps=5.6e-07 pd=5.6e-07 nrd=1.16667 \
        nrs=1.16667 sa=4.15e-07 sb=5.5e-07 sd=160n sca=42.7422 \
        scb=0.0406409 scc=0.00517452 m=(1)
    I9\|PM7 (\2\:net19 I9\|N_S \1\:Y6 vdd!) g45p1svt w=(1.2e-07) l=4.5e-08 \
        nf=1 as=1.92e-14 ad=1.92e-14 ps=5.6e-07 pd=5.6e-07 nrd=1.16667 \
        nrs=1.16667 sa=6.2e-07 sb=3.45e-07 sd=160n sca=44.8715 \
        scb=0.0436968 scc=0.00520302 m=(1)
    I9\|PM5 (\2\:net19 \2\:S34 \5\:Y7 vdd!) g45p1svt w=(1.2e-07) l=4.5e-08 \
        nf=1 as=1.68e-14 ad=1.92e-14 ps=5.2e-07 pd=5.6e-07 nrd=1.16667 \
        nrs=1.16667 sa=8.25e-07 sb=1.4e-07 sd=160n sca=53.2651 \
        scb=0.056752 scc=0.0061893 m=(1)
    I2\|PM6 (\2\:X0 \2\:I2\|N_S net18 vdd!) g45p1svt w=(1.2e-07) l=4.5e-08 \
        nf=1 as=2.52e-14 ad=1.92e-14 ps=6.6e-07 pd=5.6e-07 nrd=1.16667 \
        nrs=1.16667 sa=2.1e-07 sb=7.55e-07 sd=160n sca=41.897 \
        scb=0.0400704 scc=0.00517385 m=(1)
    I2\|PM0 (\2\:X0 \6\:S00 \6\:net4 vdd!) g45p1svt w=(1.2e-07) l=4.5e-08 \
        nf=1 as=1.92e-14 ad=1.92e-14 ps=5.6e-07 pd=5.6e-07 nrd=1.16667 \
        nrs=1.16667 sa=4.15e-07 sb=5.5e-07 sd=160n sca=42.7422 \
        scb=0.0406409 scc=0.00517452 m=(1)
    I2\|PM7 (\2\:X1 \5\:I2\|N_S \6\:net4 vdd!) g45p1svt w=(1.2e-07) \
        l=4.5e-08 nf=1 as=1.92e-14 ad=1.92e-14 ps=5.6e-07 pd=5.6e-07 \
        nrd=1.16667 nrs=1.16667 sa=6.2e-07 sb=3.45e-07 sd=160n sca=44.8715 \
        scb=0.0436968 scc=0.00520302 m=(1)
    I2\|PM5 (\2\:X1 \5\:S00 \4\:net18 vdd!) g45p1svt w=(1.2e-07) l=4.5e-08 \
        nf=1 as=1.68e-14 ad=1.92e-14 ps=5.2e-07 pd=5.6e-07 nrd=1.16667 \
        nrs=1.16667 sa=8.25e-07 sb=1.4e-07 sd=160n sca=53.2651 \
        scb=0.056752 scc=0.0061893 m=(1)
    I3\|PM6 (\2\:X2 \2\:I3\|N_S net16 vdd!) g45p1svt w=(1.2e-07) l=4.5e-08 \
        nf=1 as=2.52e-14 ad=1.92e-14 ps=6.6e-07 pd=5.6e-07 nrd=1.16667 \
        nrs=1.16667 sa=2.1e-07 sb=7.55e-07 sd=160n sca=41.897 \
        scb=0.0400704 scc=0.00517385 m=(1)
    I3\|PM0 (\2\:X2 \6\:S10 \6\:net2 vdd!) g45p1svt w=(1.2e-07) l=4.5e-08 \
        nf=1 as=1.92e-14 ad=1.92e-14 ps=5.6e-07 pd=5.6e-07 nrd=1.16667 \
        nrs=1.16667 sa=4.15e-07 sb=5.5e-07 sd=160n sca=42.7422 \
        scb=0.0406409 scc=0.00517452 m=(1)
    I3\|PM7 (\2\:X3 \5\:I3\|N_S \6\:net2 vdd!) g45p1svt w=(1.2e-07) \
        l=4.5e-08 nf=1 as=1.92e-14 ad=1.92e-14 ps=5.6e-07 pd=5.6e-07 \
        nrd=1.16667 nrs=1.16667 sa=6.2e-07 sb=3.45e-07 sd=160n sca=44.8715 \
        scb=0.0436968 scc=0.00520302 m=(1)
    I3\|PM5 (\2\:X3 \5\:S10 \4\:net16 vdd!) g45p1svt w=(1.2e-07) l=4.5e-08 \
        nf=1 as=1.68e-14 ad=1.92e-14 ps=5.2e-07 pd=5.6e-07 nrd=1.16667 \
        nrs=1.16667 sa=8.25e-07 sb=1.4e-07 sd=160n sca=53.2651 \
        scb=0.056752 scc=0.0061893 m=(1)
    I4\|PM6 (\2\:X4 \2\:I4\|N_S \7\:net17 vdd!) g45p1svt w=(1.2e-07) \
        l=4.5e-08 nf=1 as=2.52e-14 ad=1.92e-14 ps=6.6e-07 pd=5.6e-07 \
        nrd=1.16667 nrs=1.16667 sa=2.1e-07 sb=7.55e-07 sd=160n sca=41.897 \
        scb=0.0400704 scc=0.00517385 m=(1)
    I4\|PM0 (\2\:X4 \6\:S20 \2\:net3 vdd!) g45p1svt w=(1.2e-07) l=4.5e-08 \
        nf=1 as=1.92e-14 ad=1.92e-14 ps=5.6e-07 pd=5.6e-07 nrd=1.16667 \
        nrs=1.16667 sa=4.15e-07 sb=5.5e-07 sd=160n sca=42.7422 \
        scb=0.0406409 scc=0.00517452 m=(1)
    I4\|PM7 (\2\:X5 \5\:I4\|N_S \2\:net3 vdd!) g45p1svt w=(1.2e-07) \
        l=4.5e-08 nf=1 as=1.92e-14 ad=1.92e-14 ps=5.6e-07 pd=5.6e-07 \
        nrd=1.16667 nrs=1.16667 sa=6.2e-07 sb=3.45e-07 sd=160n sca=44.8715 \
        scb=0.0436968 scc=0.00520302 m=(1)
    I4\|PM5 (\2\:X5 \5\:S20 \6\:net17 vdd!) g45p1svt w=(1.2e-07) l=4.5e-08 \
        nf=1 as=1.68e-14 ad=1.92e-14 ps=5.2e-07 pd=5.6e-07 nrd=1.16667 \
        nrs=1.16667 sa=8.25e-07 sb=1.4e-07 sd=160n sca=53.2651 \
        scb=0.056752 scc=0.0061893 m=(1)
    I5\|PM6 (\2\:X6 \2\:I5\|N_S \7\:net15 vdd!) g45p1svt w=(1.2e-07) \
        l=4.5e-08 nf=1 as=2.52e-14 ad=1.92e-14 ps=6.6e-07 pd=5.6e-07 \
        nrd=1.16667 nrs=1.16667 sa=2.1e-07 sb=7.55e-07 sd=160n sca=41.897 \
        scb=0.0400704 scc=0.00517385 m=(1)
    I5\|PM0 (\2\:X6 \6\:S30 \3\:net1 vdd!) g45p1svt w=(1.2e-07) l=4.5e-08 \
        nf=1 as=1.92e-14 ad=1.92e-14 ps=5.6e-07 pd=5.6e-07 nrd=1.16667 \
        nrs=1.16667 sa=4.15e-07 sb=5.5e-07 sd=160n sca=42.7422 \
        scb=0.0406409 scc=0.00517452 m=(1)
    I5\|PM7 (\2\:X7 \5\:I5\|N_S \3\:net1 vdd!) g45p1svt w=(1.2e-07) \
        l=4.5e-08 nf=1 as=1.92e-14 ad=1.92e-14 ps=5.6e-07 pd=5.6e-07 \
        nrd=1.16667 nrs=1.16667 sa=6.2e-07 sb=3.45e-07 sd=160n sca=44.8715 \
        scb=0.0436968 scc=0.00520302 m=(1)
    I5\|PM5 (\2\:X7 \5\:S30 \6\:net15 vdd!) g45p1svt w=(1.2e-07) l=4.5e-08 \
        nf=1 as=1.68e-14 ad=1.92e-14 ps=5.2e-07 pd=5.6e-07 nrd=1.16667 \
        nrs=1.16667 sa=8.25e-07 sb=1.4e-07 sd=160n sca=53.2651 \
        scb=0.056752 scc=0.0061893 m=(1)
    C1 (\6\:S14 \5\:I7\|N_S) capacitor c=8.6369e-19
    C2 (\140\:gnd! net6) capacitor c=4.00771e-18
    C3 (X7 S30) capacitor c=2.9971e-17
    C4 (\8\:net15 \4\:S30) capacitor c=4.60463e-18
    C5 (I1\|net8 \8\:I1\|net10) capacitor c=1.61396e-16
    C6 (\2\:I1\|net8 \5\:I1\|net8) capacitor c=5.03702e-18
    C7 (\4\:net3 \5\:X0) capacitor c=9.22426e-18
    C8 (S13 S03) capacitor c=9.24266e-18
    C9 (\8\:I0\|net3 \8\:net6) capacitor c=5.23564e-17
    C10 (S30 S31) capacitor c=1.2031e-16
    C11 (S12 S02) capacitor c=1.5032e-17
    C12 (\6\:S24 \4\:S14) capacitor c=2.26285e-17
    C13 (S14 Y1) capacitor c=1.07537e-16
    C14 (\8\:I1\|N_S11 \4\:S32) capacitor c=4.6447e-18
    C15 (\2\:net7 \3\:S03) capacitor c=1.25858e-17
    C16 (\1\:Y5 \3\:S24) capacitor c=4.82644e-18
    C17 (Y2 S14) capacitor c=1.68434e-17
    C18 (X6 X7) capacitor c=2.22622e-18
    C19 (\6\:I1\|net3 \7\:net21) capacitor c=3.90404e-18
    C20 (\6\:net6 \7\:I0\|net8) capacitor c=7.99661e-17
    C21 (\6\:X4 \4\:S20) capacitor c=3.88196e-18
    C22 (\5\:X2 \1\:X3) capacitor c=2.53021e-17
    C23 (\6\:X2 \5\:net16) capacitor c=1.65082e-17
    C24 (\10\:I1\|net6 \4\:I1\|net2) capacitor c=1.90574e-17
    C25 (\8\:net22 \10\:S22) capacitor c=2.65108e-17
    C26 (\6\:I1\|net3 vdd!) capacitor c=3.68405e-18
    C27 (\2\:net8 \3\:Y0) capacitor c=4.66555e-17
    C28 (\7\:net5 \3\:S34) capacitor c=1.13061e-17
    C29 (S11 X0) capacitor c=1.106e-17
    C30 (\6\:I0\|net2 net7) capacitor c=2.32962e-17
    C31 (\6\:S33 \7\:I1\|N_S12) capacitor c=9.12465e-17
    C32 (\140\:gnd! \5\:net20) capacitor c=2.5469e-16
    C33 (\6\:net6 \4\:I0\|N_S12) capacitor c=2.66735e-18
    C34 (X0 X1) capacitor c=2.83038e-18
    C35 (\4\:net22 \10\:S22) capacitor c=1.95566e-16
    C36 (\10\:net5 \2\:Y7) capacitor c=9.40069e-18
    C37 (S13 vdd!) capacitor c=5.27321e-18
    C38 (net8 \2\:I6\|N_S) capacitor c=8.24519e-18
    C39 (\8\:net3 \7\:I0\|N_S00) capacitor c=8.04376e-18
    C40 (X2 S10) capacitor c=1.56049e-18
    C41 (\4\:Y5 \4\:I8\|N_S) capacitor c=2.42313e-18
    C42 (net4 \6\:net3) capacitor c=2.19039e-18
    C43 (\3\:I1\|net9 \3\:I1\|N_S00) capacitor c=1.1944e-18
    C44 (S32 I1\|net8) capacitor c=5.27658e-18
    C45 (\2\:I1\|net8 S33) capacitor c=1.212e-16
    C46 (S21 X2) capacitor c=1.09298e-17
    C47 (\6\:S31 \4\:S21) capacitor c=1.58157e-17
    C48 (X5 S20) capacitor c=3.95775e-17
    C49 (\2\:S33 \5\:S34) capacitor c=4.64723e-18
    C50 (\4\:Y7 \8\:net5) capacitor c=1.04862e-16
    C51 (\2\:net18 net16) capacitor c=7.71749e-18
    C52 (\3\:S04 \2\:I6\|N_S) capacitor c=5.24318e-17
    C53 (X4 X5) capacitor c=2.78398e-18
    C54 (\6\:net4 \6\:S00) capacitor c=2.2134e-17
    C55 (\8\:net3 I2\|N_S) capacitor c=6.9704e-18
    C56 (X2 X3) capacitor c=2.68666e-18
    C57 (\8\:I0\|net3 \2\:I0\|N_S12) capacitor c=8.29208e-19
    C58 (\2\:Y4 \4\:I8\|N_S) capacitor c=1.62741e-18
    C59 (\9\:S22 \5\:I1\|N_S02) capacitor c=4.31124e-18
    C60 (\4\:net3 \5\:net16) capacitor c=3.28683e-18
    C61 (S20 S21) capacitor c=1.73493e-16
    C62 (\3\:S11 \5\:S12) capacitor c=1.23797e-18
    C63 (\2\:I1\|net8 \2\:I1\|net3) capacitor c=4.67304e-18
    C64 (\7\:I0\|net6 \1\:S12) capacitor c=2.74877e-18
    C65 (\7\:net20 \4\:Y7) capacitor c=3.45944e-18
    C66 (\3\:S01 \4\:S02) capacitor c=6.14689e-18
    C67 (net22 \2\:I1\|N_S02) capacitor c=1.06502e-18
    C68 (\1\:S11 I0\|N_S10) capacitor c=2.17725e-17
    C69 (\2\:I1\|net3 \3\:S22) capacitor c=1.36793e-17
    C70 (\3\:I1\|net1 \6\:I1\|net5) capacitor c=1.77925e-18
    C71 (\6\:net21 \5\:S24) capacitor c=4.35848e-18
    C72 (Y1 Y0) capacitor c=8.19528e-18
    C73 (\1\:S30 \2\:net15) capacitor c=8.53379e-18
    C74 (\6\:S11 \3\:S00) capacitor c=1.35625e-17
    C75 (\10\:S22 \2\:net5) capacitor c=3.22354e-18
    C76 (\3\:I0\|net1 vdd!) capacitor c=8.86199e-18
    C77 (\8\:I1\|net8 \2\:I1\|N_S12) capacitor c=2.27253e-18
    C78 (\2\:X2 \6\:S10) capacitor c=1.99607e-18
    C79 (\6\:I0\|net2 \7\:S03) capacitor c=2.12764e-18
    C80 (\6\:S34 \137\:gnd!) capacitor c=3.96894e-18
    C81 (\3\:I0\|net2 vdd!) capacitor c=5.47372e-18
    C82 (\5\:net3 \6\:I0\|net10) capacitor c=1.794e-17
    C83 (\9\:I1\|N_S12 \112\:gnd!) capacitor c=2.07646e-17
    C84 (Y7 Y6) capacitor c=2.19992e-17
    C85 (\3\:I1\|N_S02 \7\:S23) capacitor c=2.73822e-17
    C86 (\7\:net15 \9\:I5\|N_S) capacitor c=1.86216e-18
    C87 (\159\:gnd! \6\:net3) capacitor c=1.67527e-18
    C88 (\109\:vdd! net7) capacitor c=4.03879e-18
    C89 (\3\:X2 \7\:S10) capacitor c=4.90408e-18
    C90 (\3\:I1\|net1 vdd!) capacitor c=3.50275e-18
    C91 (S30 \5\:I5\|N_S) capacitor c=9.5738e-19
    C92 (\3\:I0\|net2 \7\:I0\|net6) capacitor c=7.58696e-17
    C93 (\3\:I1\|net2 vdd!) capacitor c=4.90093e-18
    C94 (\9\:I9\|N_S \133\:gnd!) capacitor c=2.09636e-17
    C95 (\8\:I0\|net9 \7\:I0\|N_S01) capacitor c=2.24261e-18
    C96 (\8\:net4 \7\:S00) capacitor c=3.25525e-18
    C97 (\8\:I0\|net9 S02) capacitor c=7.35181e-19
    C98 (\2\:X6 \7\:net15) capacitor c=5.26033e-17
    C99 (\7\:net15 \6\:I5\|N_S) capacitor c=2.21691e-18
    C100 (net5 \7\:S13) capacitor c=2.0355e-18
    C101 (\3\:I0\|net9 S02) capacitor c=1.13647e-18
    C102 (I0\|N_S02 \2\:S03) capacitor c=2.16088e-17
    C103 (\8\:I0\|net9 vdd!) capacitor c=6.21313e-18
    C104 (\7\:I0\|N_S00 \5\:S01) capacitor c=1.50947e-17
    C105 (\2\:net5 \2\:S13) capacitor c=1.15556e-17
    C106 (\140\:gnd! \2\:Y2) capacitor c=1.79553e-17
    C107 (net1 \3\:I5\|N_S) capacitor c=4.6767e-18
    C108 (I1\|net8 \4\:S32) capacitor c=6.90282e-18
    C109 (\8\:I1\|net9 \5\:I1\|N_S01) capacitor c=9.8452e-18
    C110 (\10\:I0\|net10 vdd!) capacitor c=3.55076e-18
    C111 (\2\:net16 \3\:I3\|N_S) capacitor c=2.78422e-18
    C112 (X3 S10) capacitor c=3.17504e-17
    C113 (\7\:I0\|N_S01 \47\:vdd!) capacitor c=3.70257e-17
    C114 (\1\:X5 \3\:I4\|N_S) capacitor c=1.82906e-18
    C115 (\6\:net5 \6\:Y3) capacitor c=2.34924e-18
    C116 (\4\:net3 \5\:X2) capacitor c=1.27412e-17
    C117 (\2\:net17 \2\:S21) capacitor c=1.42393e-17
    C118 (\8\:I1\|net9 vdd!) capacitor c=2.82356e-18
    C119 (\7\:net1 \42\:gnd!) capacitor c=2.84084e-18
    C120 (\6\:I1\|net6 \6\:net16) capacitor c=4.32413e-17
    C121 (\3\:net7 \4\:I0\|N_S02) capacitor c=2.40414e-18
    C122 (\7\:net1 \6\:net2) capacitor c=4.40366e-18
    C123 (Y4 S22) capacitor c=1.5899e-17
    C124 (\32\:vdd! \5\:S11) capacitor c=6.02704e-18
    C125 (\10\:I1\|net10 vdd!) capacitor c=3.21613e-18
    C126 (\109\:vdd! \9\:I6\|N_S) capacitor c=8.90357e-19
    C127 (\2\:I0\|net10 \2\:S01) capacitor c=1.14349e-17
    C128 (\2\:net4 \5\:net3) capacitor c=1.23924e-17
    C129 (\10\:I0\|net3 \5\:I0\|net2) capacitor c=1.30876e-18
    C130 (\6\:S34 \4\:S24) capacitor c=2.02315e-17
    C131 (\4\:net6 \5\:I7\|N_S) capacitor c=9.46028e-17
    C132 (\4\:I1\|net9 net17) capacitor c=3.26102e-17
    C133 (\8\:I1\|net5 \6\:I1\|net9) capacitor c=2.14801e-17
    C134 (\4\:Y7 \4\:S34) capacitor c=2.77317e-18
    C135 (S32 \6\:I1\|N_S11) capacitor c=1.2935e-17
    C136 (\7\:I0\|N_S01 S02) capacitor c=1.55593e-17
    C137 (S14 \3\:S04) capacitor c=6.20599e-18
    C138 (S30 \4\:S20) capacitor c=1.56325e-18
    C139 (\146\:gnd! \9\:I5\|N_S) capacitor c=4.48565e-18
    C140 (\1\:S21 I1\|N_S00) capacitor c=2.1478e-17
    C141 (S10 S11) capacitor c=1.61523e-16
    C142 (\3\:S14 \2\:I7\|N_S) capacitor c=5.24319e-17
    C143 (\9\:S22 \10\:I0\|net6) capacitor c=3.15033e-17
    C144 (\3\:I1\|net9 \6\:I0\|net6) capacitor c=9.58582e-18
    C145 (\7\:Y7 \7\:net20) capacitor c=2.90423e-17
    C146 (\3\:I1\|net9 \7\:I1\|N_S01) capacitor c=6.42152e-18
    C147 (\5\:X0 \5\:net18) capacitor c=2.21989e-17
    C148 (\7\:net1 \8\:net3) capacitor c=7.56874e-18
    C149 (\1\:S13 \3\:S03) capacitor c=6.34434e-18
    C150 (\7\:I7\|N_S \92\:vdd!) capacitor c=3.96507e-17
    C151 (\7\:net1 \4\:S11) capacitor c=2.75462e-18
    C152 (S13 \5\:S03) capacitor c=1.97478e-18
    C153 (\6\:I0\|net5 \3\:I0\|N_S01) capacitor c=1.313e-18
    C154 (I0\|N_S12 \2\:S13) capacitor c=2.20571e-17
    C155 (\6\:net6 \3\:I0\|N_S12) capacitor c=1.04495e-18
    C156 (\8\:I1\|net6 \7\:S32) capacitor c=2.12586e-18
    C157 (\8\:I0\|net10 \7\:S12) capacitor c=4.85972e-18
    C158 (\4\:I1\|net1 \7\:S22) capacitor c=3.05594e-18
    C159 (\2\:net20 \7\:I1\|net8) capacitor c=1.72425e-17
    C160 (\2\:Y3 I7\|N_S) capacitor c=1.49817e-18